* NGSPICE file created from gf180mcu_fd_sc_mcu7t5v0__addf_1.ext - technology: gf180mcuC

.subckt gf180mcu_fd_sc_mcu7t5v0__addf_1 B CI CO S VDD VSS A VPW VNW
X0 a_680_156# B a_512_156# VPW nmos_6p0 w=0.38u l=0.6u
X1 CO a_952_112# VDD VNW pmos_6p0 w=1.215u l=0.5u
X2 a_1992_156# A VSS VPW nmos_6p0 w=0.38u l=0.6u
X3 VSS A a_1072_156# VPW nmos_6p0 w=0.38u l=0.6u
X4 a_3048_156# B a_952_112# VPW nmos_6p0 w=0.38u l=0.6u
X5 VSS CI a_1072_156# VPW nmos_6p0 w=0.38u l=0.6u
X6 a_2012_472# A VDD VNW pmos_6p0 w=0.7u l=0.5u
X7 a_1072_496# B VDD VNW pmos_6p0 w=0.66u l=0.5u
X8 a_512_156# A VSS VPW nmos_6p0 w=0.38u l=0.6u
X9 a_124_46# CI a_680_496# VNW pmos_6p0 w=0.66u l=0.5u
X10 a_3028_472# B a_952_112# VNW pmos_6p0 w=0.7u l=0.5u
X11 VDD CI a_1072_496# VNW pmos_6p0 w=0.66u l=0.5u
X12 a_1072_156# B VSS VPW nmos_6p0 w=0.38u l=0.6u
X13 a_680_496# B a_512_496# VNW pmos_6p0 w=0.66u l=0.5u
X14 a_1072_156# a_952_112# a_124_46# VPW nmos_6p0 w=0.38u l=0.6u
X15 VSS A a_3048_156# VPW nmos_6p0 w=0.38u l=0.6u
X16 VDD A a_1072_496# VNW pmos_6p0 w=0.66u l=0.5u
X17 a_952_112# CI a_1992_156# VPW nmos_6p0 w=0.38u l=0.6u
X18 VDD a_124_46# S VNW pmos_6p0 w=1.215u l=0.5u
X19 VDD A a_3028_472# VNW pmos_6p0 w=0.7u l=0.5u
X20 a_952_112# CI a_2012_472# VNW pmos_6p0 w=0.7u l=0.5u
X21 CO a_952_112# VSS VPW nmos_6p0 w=0.815u l=0.6u
X22 VDD B a_2012_472# VNW pmos_6p0 w=0.7u l=0.5u
X23 VSS a_124_46# S VPW nmos_6p0 w=0.71u l=0.6u
X24 a_1072_496# a_952_112# a_124_46# VNW pmos_6p0 w=0.66u l=0.5u
X25 a_512_496# A VDD VNW pmos_6p0 w=0.66u l=0.5u
X26 VSS B a_1992_156# VPW nmos_6p0 w=0.38u l=0.6u
X27 a_124_46# CI a_680_156# VPW nmos_6p0 w=0.38u l=0.6u
.ends



******* EOF

* NGSPICE file created from gf180mcu_fd_sc_mcu7t5v0__addf_1.ext - technology: gf180mcuC



******* EOF

* NGSPICE file created from gf180mcu_fd_sc_mcu7t5v0__addf_2.ext - technology: gf180mcuC

.subckt gf180mcu_fd_sc_mcu7t5v0__addf_2 VDD B CI CO S VSS A VPW VNW
X0 S a_132_24# VSS VPW nmos_6p0 w=0.815u l=0.6u
X1 a_912_156# B a_744_156# VPW nmos_6p0 w=0.38u l=0.6u
X2 a_1284_492# a_1184_112# a_132_24# VNW pmos_6p0 w=0.68u l=0.5u
X3 a_1184_112# CI a_2248_156# VPW nmos_6p0 w=0.38u l=0.6u
X4 CO a_1184_112# VDD VNW pmos_6p0 w=1.195u l=0.5u
X5 VDD a_1184_112# CO VNW pmos_6p0 w=1.195u l=0.5u
X6 a_1284_492# B VDD VNW pmos_6p0 w=0.68u l=0.5u
X7 VSS A a_3216_156# VPW nmos_6p0 w=0.38u l=0.6u
X8 a_912_492# B a_744_492# VNW pmos_6p0 w=0.68u l=0.5u
X9 a_3216_472# B a_1184_112# VNW pmos_6p0 w=0.78u l=0.5u
X10 VSS B a_2248_156# VPW nmos_6p0 w=0.38u l=0.6u
X11 S a_132_24# VDD VNW pmos_6p0 w=1.12u l=0.5u
X12 VDD CI a_1284_492# VNW pmos_6p0 w=0.68u l=0.5u
X13 VSS CI a_1304_156# VPW nmos_6p0 w=0.38u l=0.6u
X14 VDD A a_1284_492# VNW pmos_6p0 w=0.68u l=0.5u
X15 VDD A a_3216_472# VNW pmos_6p0 w=0.78u l=0.5u
X16 VSS A a_1304_156# VPW nmos_6p0 w=0.38u l=0.6u
X17 VDD B a_2248_472# VNW pmos_6p0 w=0.78u l=0.5u
X18 a_3216_156# B a_1184_112# VPW nmos_6p0 w=0.38u l=0.6u
X19 VDD a_132_24# S VNW pmos_6p0 w=1.12u l=0.5u
X20 a_744_492# A VDD VNW pmos_6p0 w=0.68u l=0.5u
X21 a_744_156# A VSS VPW nmos_6p0 w=0.38u l=0.6u
X22 a_1304_156# a_1184_112# a_132_24# VPW nmos_6p0 w=0.38u l=0.6u
X23 a_2248_156# A VSS VPW nmos_6p0 w=0.38u l=0.6u
X24 CO a_1184_112# VSS VPW nmos_6p0 w=0.815u l=0.6u
X25 a_2248_472# A VDD VNW pmos_6p0 w=0.78u l=0.5u
X26 a_1184_112# CI a_2248_472# VNW pmos_6p0 w=0.78u l=0.5u
X27 VSS a_132_24# S VPW nmos_6p0 w=0.815u l=0.6u
X28 a_1304_156# B VSS VPW nmos_6p0 w=0.38u l=0.6u
X29 a_132_24# CI a_912_156# VPW nmos_6p0 w=0.38u l=0.6u
X30 VSS a_1184_112# CO VPW nmos_6p0 w=0.815u l=0.6u
X31 a_132_24# CI a_912_492# VNW pmos_6p0 w=0.68u l=0.5u
.ends



******* EOF

* NGSPICE file created from gf180mcu_fd_sc_mcu7t5v0__addf_2.ext - technology: gf180mcuC



******* EOF

* NGSPICE file created from gf180mcu_fd_sc_mcu7t5v0__addf_4.ext - technology: gf180mcuC

.subckt gf180mcu_fd_sc_mcu7t5v0__addf_4 B CI CO S VDD VSS A VPW VNW
X0 a_1640_112# CI a_2748_472# VNW pmos_6p0 w=0.78u l=0.5u
X1 VSS a_1640_112# CO VPW nmos_6p0 w=0.815u l=0.6u
X2 VSS a_1640_112# CO VPW nmos_6p0 w=0.815u l=0.6u
X3 a_1200_156# A VSS VPW nmos_6p0 w=0.38u l=0.6u
X4 VDD a_140_24# S VNW pmos_6p0 w=1.095u l=0.5u
X5 a_140_24# CI a_1368_496# VNW pmos_6p0 w=0.66u l=0.5u
X6 VDD a_1640_112# CO VNW pmos_6p0 w=1.215u l=0.5u
X7 S a_140_24# VSS VPW nmos_6p0 w=0.815u l=0.6u
X8 VSS A a_3696_156# VPW nmos_6p0 w=0.38u l=0.6u
X9 VDD A a_1760_496# VNW pmos_6p0 w=0.66u l=0.5u
X10 a_2728_156# A VSS VPW nmos_6p0 w=0.38u l=0.6u
X11 CO a_1640_112# VSS VPW nmos_6p0 w=0.815u l=0.6u
X12 a_1368_496# B a_1200_496# VNW pmos_6p0 w=0.66u l=0.5u
X13 VSS B a_2728_156# VPW nmos_6p0 w=0.38u l=0.6u
X14 a_1760_156# a_1640_112# a_140_24# VPW nmos_6p0 w=0.38u l=0.6u
X15 CO a_1640_112# VSS VPW nmos_6p0 w=0.815u l=0.6u
X16 VDD A a_3676_472# VNW pmos_6p0 w=0.78u l=0.5u
X17 a_2748_472# A VDD VNW pmos_6p0 w=0.78u l=0.5u
X18 a_3696_156# B a_1640_112# VPW nmos_6p0 w=0.38u l=0.6u
X19 a_3676_472# B a_1640_112# VNW pmos_6p0 w=0.78u l=0.5u
X20 S a_140_24# VDD VNW pmos_6p0 w=1.095u l=0.5u
X21 CO a_1640_112# VDD VNW pmos_6p0 w=1.215u l=0.5u
X22 S a_140_24# VSS VPW nmos_6p0 w=0.815u l=0.6u
X23 VDD a_140_24# S VNW pmos_6p0 w=1.095u l=0.5u
X24 a_1760_496# a_1640_112# a_140_24# VNW pmos_6p0 w=0.66u l=0.5u
X25 a_1200_496# A VDD VNW pmos_6p0 w=0.66u l=0.5u
X26 a_1760_496# B VDD VNW pmos_6p0 w=0.66u l=0.5u
X27 VDD a_1640_112# CO VNW pmos_6p0 w=1.215u l=0.5u
X28 a_140_24# CI a_1368_156# VPW nmos_6p0 w=0.38u l=0.6u
X29 VDD CI a_1760_496# VNW pmos_6p0 w=0.66u l=0.5u
X30 S a_140_24# VDD VNW pmos_6p0 w=1.095u l=0.5u
X31 CO a_1640_112# VDD VNW pmos_6p0 w=1.215u l=0.5u
X32 VSS a_140_24# S VPW nmos_6p0 w=0.815u l=0.6u
X33 a_1640_112# CI a_2728_156# VPW nmos_6p0 w=0.38u l=0.6u
X34 a_1760_156# B VSS VPW nmos_6p0 w=0.38u l=0.6u
X35 VSS CI a_1760_156# VPW nmos_6p0 w=0.38u l=0.6u
X36 VDD B a_2748_472# VNW pmos_6p0 w=0.78u l=0.5u
X37 VSS a_140_24# S VPW nmos_6p0 w=0.815u l=0.6u
X38 a_1368_156# B a_1200_156# VPW nmos_6p0 w=0.38u l=0.6u
X39 VSS A a_1760_156# VPW nmos_6p0 w=0.38u l=0.6u
.ends



******* EOF

* NGSPICE file created from gf180mcu_fd_sc_mcu7t5v0__addf_4.ext - technology: gf180mcuC



******* EOF

* NGSPICE file created from gf180mcu_fd_sc_mcu7t5v0__addh_1.ext - technology: gf180mcuC

.subckt gf180mcu_fd_sc_mcu7t5v0__addh_1 CO S VDD VSS A B VPW VNW
X0 VSS a_124_24# a_844_148# VPW nmos_6p0 w=0.42u l=0.6u
X1 VDD B a_124_24# VNW pmos_6p0 w=0.635u l=0.5u
X2 S a_1052_148# VSS VPW nmos_6p0 w=0.815u l=0.6u
X3 a_1052_148# A a_1052_589# VNW pmos_6p0 w=0.635u l=0.5u
X4 a_844_148# A a_1052_148# VPW nmos_6p0 w=0.42u l=0.6u
X5 S a_1052_148# VDD VNW pmos_6p0 w=1.22u l=0.5u
X6 a_1052_589# B VDD VNW pmos_6p0 w=0.635u l=0.5u
X7 a_124_24# B a_516_136# VPW nmos_6p0 w=0.48u l=0.6u
X8 a_516_136# A VSS VPW nmos_6p0 w=0.48u l=0.6u
X9 VDD a_124_24# CO VNW pmos_6p0 w=1.22u l=0.5u
X10 VDD a_124_24# a_1052_148# VNW pmos_6p0 w=0.635u l=0.5u
X11 VSS a_124_24# CO VPW nmos_6p0 w=0.815u l=0.6u
X12 a_124_24# A VDD VNW pmos_6p0 w=0.635u l=0.5u
X13 a_1052_148# B a_844_148# VPW nmos_6p0 w=0.42u l=0.6u
.ends



******* EOF

* NGSPICE file created from gf180mcu_fd_sc_mcu7t5v0__addh_1.ext - technology: gf180mcuC



******* EOF

* NGSPICE file created from gf180mcu_fd_sc_mcu7t5v0__addh_2.ext - technology: gf180mcuC

.subckt gf180mcu_fd_sc_mcu7t5v0__addh_2 CO S VDD VSS A B VPW VNW
X0 a_128_24# A VDD VNW pmos_6p0 w=1.215u l=0.5u
X1 VDD B a_128_24# VNW pmos_6p0 w=1.215u l=0.5u
X2 a_1064_69# A a_1272_69# VPW nmos_6p0 w=0.815u l=0.6u
X3 a_128_24# B a_696_69# VPW nmos_6p0 w=0.815u l=0.6u
X4 VDD a_128_24# CO VNW pmos_6p0 w=1.215u l=0.5u
X5 a_1272_520# B VDD VNW pmos_6p0 w=0.975u l=0.5u
X6 S a_1272_69# VDD VNW pmos_6p0 w=0.975u l=0.5u
X7 VDD a_128_24# a_1272_69# VNW pmos_6p0 w=0.975u l=0.5u
X8 CO a_128_24# VDD VNW pmos_6p0 w=1.215u l=0.5u
X9 a_696_69# A VSS VPW nmos_6p0 w=0.815u l=0.6u
X10 CO a_128_24# VSS VPW nmos_6p0 w=0.815u l=0.6u
X11 a_1272_69# B a_1064_69# VPW nmos_6p0 w=0.815u l=0.6u
X12 VSS a_128_24# a_1064_69# VPW nmos_6p0 w=0.815u l=0.6u
X13 a_1272_69# A a_1272_520# VNW pmos_6p0 w=0.975u l=0.5u
X14 VSS a_128_24# CO VPW nmos_6p0 w=0.815u l=0.6u
X15 VSS a_1272_69# S VPW nmos_6p0 w=0.815u l=0.6u
X16 S a_1272_69# VSS VPW nmos_6p0 w=0.815u l=0.6u
X17 VDD a_1272_69# S VNW pmos_6p0 w=0.975u l=0.5u
.ends



******* EOF

* NGSPICE file created from gf180mcu_fd_sc_mcu7t5v0__addh_2.ext - technology: gf180mcuC



******* EOF

* NGSPICE file created from gf180mcu_fd_sc_mcu7t5v0__addh_4.ext - technology: gf180mcuC

.subckt gf180mcu_fd_sc_mcu7t5v0__addh_4 B CO S VDD VSS A VPW VNW
X0 VSS A a_672_68# VPW nmos_6p0 w=0.82u l=0.6u
X1 VSS a_224_518# a_1126_156# VPW nmos_6p0 w=0.61u l=0.6u
X2 VDD a_1116_518# S VNW pmos_6p0 w=0.99u l=0.5u
X3 a_672_68# B a_224_518# VPW nmos_6p0 w=0.82u l=0.6u
X4 CO a_224_518# VSS VPW nmos_6p0 w=1.05u l=0.6u
X5 S a_1116_518# VSS VPW nmos_6p0 w=0.82u l=0.6u
X6 S a_1116_518# VSS VPW nmos_6p0 w=0.82u l=0.6u
X7 VDD B a_1330_518# VNW pmos_6p0 w=0.99u l=0.5u
X8 a_1910_518# B VDD VNW pmos_6p0 w=0.99u l=0.5u
X9 S a_1116_518# VDD VNW pmos_6p0 w=0.99u l=0.5u
X10 a_1126_156# a_224_518# VSS VPW nmos_6p0 w=0.61u l=0.6u
X11 VSS a_224_518# CO VPW nmos_6p0 w=1.05u l=0.6u
X12 VSS a_1116_518# S VPW nmos_6p0 w=0.82u l=0.6u
X13 VDD a_224_518# CO VNW pmos_6p0 w=0.99u l=0.5u
X14 a_224_518# B VDD VNW pmos_6p0 w=0.99u l=0.5u
X15 a_1126_156# B a_1116_518# VPW nmos_6p0 w=0.61u l=0.6u
X16 a_1126_156# A a_1116_518# VPW nmos_6p0 w=0.61u l=0.6u
X17 VDD a_224_518# a_1116_518# VNW pmos_6p0 w=0.99u l=0.5u
X18 a_244_68# A VSS VPW nmos_6p0 w=0.82u l=0.6u
X19 VDD A a_224_518# VNW pmos_6p0 w=0.99u l=0.5u
X20 CO a_224_518# VDD VNW pmos_6p0 w=0.99u l=0.5u
X21 S a_1116_518# VDD VNW pmos_6p0 w=0.99u l=0.5u
X22 a_1330_518# A a_1116_518# VNW pmos_6p0 w=0.99u l=0.5u
X23 VDD a_224_518# CO VNW pmos_6p0 w=0.99u l=0.5u
X24 VDD B a_224_518# VNW pmos_6p0 w=0.99u l=0.5u
X25 VSS a_224_518# CO VPW nmos_6p0 w=1.05u l=0.6u
X26 a_224_518# A VDD VNW pmos_6p0 w=0.99u l=0.5u
X27 a_1116_518# a_224_518# VDD VNW pmos_6p0 w=0.99u l=0.5u
X28 a_224_518# B a_244_68# VPW nmos_6p0 w=0.82u l=0.6u
X29 a_1116_518# B a_1126_156# VPW nmos_6p0 w=0.61u l=0.6u
X30 a_1116_518# A a_1126_156# VPW nmos_6p0 w=0.61u l=0.6u
X31 a_1116_518# A a_1910_518# VNW pmos_6p0 w=0.99u l=0.5u
X32 CO a_224_518# VSS VPW nmos_6p0 w=1.05u l=0.6u
X33 VDD a_1116_518# S VNW pmos_6p0 w=0.99u l=0.5u
X34 CO a_224_518# VDD VNW pmos_6p0 w=0.99u l=0.5u
X35 VSS a_1116_518# S VPW nmos_6p0 w=0.82u l=0.6u
.ends



******* EOF

* NGSPICE file created from gf180mcu_fd_sc_mcu7t5v0__addh_4.ext - technology: gf180mcuC



******* EOF

* NGSPICE file created from gf180mcu_fd_sc_mcu7t5v0__and2_1.ext - technology: gf180mcuC

.subckt gf180mcu_fd_sc_mcu7t5v0__and2_1 VDD VSS Z A1 A2 VPW VNW
X0 a_244_159# A1 a_36_159# VPW nmos_6p0 w=0.365u l=0.6u
X1 a_36_159# A1 VDD VNW pmos_6p0 w=0.6u l=0.5u
X2 VDD A2 a_36_159# VNW pmos_6p0 w=0.6u l=0.5u
X3 Z a_36_159# VDD VNW pmos_6p0 w=1.215u l=0.5u
X4 Z a_36_159# VSS VPW nmos_6p0 w=0.815u l=0.6u
X5 VSS A2 a_244_159# VPW nmos_6p0 w=0.365u l=0.6u
.ends



******* EOF

* NGSPICE file created from gf180mcu_fd_sc_mcu7t5v0__and2_1.ext - technology: gf180mcuC



******* EOF

* NGSPICE file created from gf180mcu_fd_sc_mcu7t5v0__and2_2.ext - technology: gf180mcuC

.subckt gf180mcu_fd_sc_mcu7t5v0__and2_2 VDD VSS Z A1 A2 VPW VNW
X0 a_247_68# A1 a_39_68# VPW nmos_6p0 w=0.815u l=0.6u
X1 Z a_39_68# VDD VNW pmos_6p0 w=1.215u l=0.5u
X2 Z a_39_68# VSS VPW nmos_6p0 w=0.815u l=0.6u
X3 VDD a_39_68# Z VNW pmos_6p0 w=1.215u l=0.5u
X4 a_39_68# A1 VDD VNW pmos_6p0 w=1.07u l=0.5u
X5 VSS a_39_68# Z VPW nmos_6p0 w=0.815u l=0.6u
X6 VDD A2 a_39_68# VNW pmos_6p0 w=1.07u l=0.5u
X7 VSS A2 a_247_68# VPW nmos_6p0 w=0.815u l=0.6u
.ends



******* EOF

* NGSPICE file created from gf180mcu_fd_sc_mcu7t5v0__and2_2.ext - technology: gf180mcuC



******* EOF

* NGSPICE file created from gf180mcu_fd_sc_mcu7t5v0__and2_4.ext - technology: gf180mcuC

.subckt gf180mcu_fd_sc_mcu7t5v0__and2_4 A2 VDD VSS Z A1 VPW VNW
X0 VSS A2 a_659_69# VPW nmos_6p0 w=0.775u l=0.6u
X1 a_224_490# A1 VDD VNW pmos_6p0 w=1.125u l=0.5u
X2 Z a_224_490# VDD VNW pmos_6p0 w=1.215u l=0.5u
X3 VDD A2 a_224_490# VNW pmos_6p0 w=1.125u l=0.5u
X4 VDD a_224_490# Z VNW pmos_6p0 w=1.215u l=0.5u
X5 Z a_224_490# VSS VPW nmos_6p0 w=0.775u l=0.6u
X6 Z a_224_490# VSS VPW nmos_6p0 w=0.775u l=0.6u
X7 VSS a_224_490# Z VPW nmos_6p0 w=0.775u l=0.6u
X8 a_224_490# A1 a_244_69# VPW nmos_6p0 w=0.775u l=0.6u
X9 a_659_69# A1 a_224_490# VPW nmos_6p0 w=0.775u l=0.6u
X10 a_244_69# A2 VSS VPW nmos_6p0 w=0.775u l=0.6u
X11 a_224_490# A2 VDD VNW pmos_6p0 w=1.125u l=0.5u
X12 Z a_224_490# VDD VNW pmos_6p0 w=1.215u l=0.5u
X13 VSS a_224_490# Z VPW nmos_6p0 w=0.775u l=0.6u
X14 VDD A1 a_224_490# VNW pmos_6p0 w=1.125u l=0.5u
X15 VDD a_224_490# Z VNW pmos_6p0 w=1.215u l=0.5u
.ends



******* EOF

* NGSPICE file created from gf180mcu_fd_sc_mcu7t5v0__and2_4.ext - technology: gf180mcuC



******* EOF

* NGSPICE file created from gf180mcu_fd_sc_mcu7t5v0__and3_1.ext - technology: gf180mcuC

.subckt gf180mcu_fd_sc_mcu7t5v0__and3_1 A3 VDD VSS Z A1 A2 VPW VNW
X0 VDD A1 a_36_148# VNW pmos_6p0 w=0.535u l=0.5u
X1 a_36_148# A2 VDD VNW pmos_6p0 w=0.535u l=0.5u
X2 VDD A3 a_36_148# VNW pmos_6p0 w=0.535u l=0.5u
X3 Z a_36_148# VDD VNW pmos_6p0 w=1.215u l=0.5u
X4 a_428_148# A2 a_244_148# VPW nmos_6p0 w=0.38u l=0.6u
X5 Z a_36_148# VSS VPW nmos_6p0 w=0.775u l=0.6u
X6 VSS A3 a_428_148# VPW nmos_6p0 w=0.38u l=0.6u
X7 a_244_148# A1 a_36_148# VPW nmos_6p0 w=0.38u l=0.6u
.ends



******* EOF

* NGSPICE file created from gf180mcu_fd_sc_mcu7t5v0__and3_1.ext - technology: gf180mcuC



******* EOF

* NGSPICE file created from gf180mcu_fd_sc_mcu7t5v0__and3_2.ext - technology: gf180mcuC

.subckt gf180mcu_fd_sc_mcu7t5v0__and3_2 A3 VDD VSS Z A1 A2 VPW VNW
X0 Z a_47_69# VSS VPW nmos_6p0 w=0.815u l=0.6u
X1 Z a_47_69# VDD VNW pmos_6p0 w=1.215u l=0.5u
X2 VDD A1 a_47_69# VNW pmos_6p0 w=0.985u l=0.5u
X3 a_47_69# A2 VDD VNW pmos_6p0 w=0.985u l=0.5u
X4 VDD a_47_69# Z VNW pmos_6p0 w=1.215u l=0.5u
X5 VSS a_47_69# Z VPW nmos_6p0 w=0.815u l=0.6u
X6 VSS A3 a_439_69# VPW nmos_6p0 w=0.815u l=0.6u
X7 VDD A3 a_47_69# VNW pmos_6p0 w=0.985u l=0.5u
X8 a_255_69# A1 a_47_69# VPW nmos_6p0 w=0.815u l=0.6u
X9 a_439_69# A2 a_255_69# VPW nmos_6p0 w=0.815u l=0.6u
.ends



******* EOF

* NGSPICE file created from gf180mcu_fd_sc_mcu7t5v0__and3_2.ext - technology: gf180mcuC



******* EOF

* NGSPICE file created from gf180mcu_fd_sc_mcu7t5v0__and3_4.ext - technology: gf180mcuC

.subckt gf180mcu_fd_sc_mcu7t5v0__and3_4 A2 A3 VDD VSS Z A1 VPW VNW
X0 a_224_472# A3 VDD VNW pmos_6p0 w=1.22u l=0.5u
X1 VSS a_224_472# Z VPW nmos_6p0 w=0.76u l=0.6u
X2 VSS a_224_472# Z VPW nmos_6p0 w=0.76u l=0.6u
X3 VDD A2 a_224_472# VNW pmos_6p0 w=1.22u l=0.5u
X4 a_260_69# A3 VSS VPW nmos_6p0 w=0.76u l=0.6u
X5 VSS A3 a_1040_69# VPW nmos_6p0 w=0.76u l=0.6u
X6 a_224_472# A1 VDD VNW pmos_6p0 w=1.22u l=0.5u
X7 a_856_69# A1 a_224_472# VPW nmos_6p0 w=0.76u l=0.6u
X8 VDD A1 a_224_472# VNW pmos_6p0 w=1.22u l=0.5u
X9 Z a_224_472# VSS VPW nmos_6p0 w=0.76u l=0.6u
X10 Z a_224_472# VDD VNW pmos_6p0 w=1.22u l=0.5u
X11 a_224_472# A2 VDD VNW pmos_6p0 w=1.22u l=0.5u
X12 Z a_224_472# VSS VPW nmos_6p0 w=0.76u l=0.6u
X13 VDD a_224_472# Z VNW pmos_6p0 w=1.22u l=0.5u
X14 a_224_472# A1 a_428_69# VPW nmos_6p0 w=0.76u l=0.6u
X15 VDD A3 a_224_472# VNW pmos_6p0 w=1.22u l=0.5u
X16 a_428_69# A2 a_260_69# VPW nmos_6p0 w=0.76u l=0.6u
X17 VDD a_224_472# Z VNW pmos_6p0 w=1.22u l=0.5u
X18 a_1040_69# A2 a_856_69# VPW nmos_6p0 w=0.76u l=0.6u
X19 Z a_224_472# VDD VNW pmos_6p0 w=1.22u l=0.5u
.ends



******* EOF

* NGSPICE file created from gf180mcu_fd_sc_mcu7t5v0__and3_4.ext - technology: gf180mcuC



******* EOF

* NGSPICE file created from gf180mcu_fd_sc_mcu7t5v0__and4_1.ext - technology: gf180mcuC

.subckt gf180mcu_fd_sc_mcu7t5v0__and4_1 A3 A4 VDD VSS Z A1 A2 VPW VNW
X0 a_256_148# A1 a_48_148# VPW nmos_6p0 w=0.42u l=0.6u
X1 a_48_148# A1 VDD VNW pmos_6p0 w=0.6u l=0.5u
X2 a_440_148# A2 a_256_148# VPW nmos_6p0 w=0.42u l=0.6u
X3 Z a_48_148# VSS VPW nmos_6p0 w=0.815u l=0.6u
X4 VDD A2 a_48_148# VNW pmos_6p0 w=0.6u l=0.5u
X5 Z a_48_148# VDD VNW pmos_6p0 w=1.22u l=0.5u
X6 a_644_148# A3 a_440_148# VPW nmos_6p0 w=0.42u l=0.6u
X7 a_48_148# A3 VDD VNW pmos_6p0 w=0.6u l=0.5u
X8 VSS A4 a_644_148# VPW nmos_6p0 w=0.42u l=0.6u
X9 VDD A4 a_48_148# VNW pmos_6p0 w=0.6u l=0.5u
.ends



******* EOF

* NGSPICE file created from gf180mcu_fd_sc_mcu7t5v0__and4_1.ext - technology: gf180mcuC



******* EOF

* NGSPICE file created from gf180mcu_fd_sc_mcu7t5v0__and4_2.ext - technology: gf180mcuC

.subckt gf180mcu_fd_sc_mcu7t5v0__and4_2 A3 A4 VDD VSS Z A1 A2 VPW VNW
X0 Z a_47_68# VSS VPW nmos_6p0 w=0.82u l=0.6u
X1 a_643_68# A3 a_439_68# VPW nmos_6p0 w=0.82u l=0.6u
X2 a_255_68# A1 a_47_68# VPW nmos_6p0 w=0.82u l=0.6u
X3 a_439_68# A2 a_255_68# VPW nmos_6p0 w=0.82u l=0.6u
X4 VSS a_47_68# Z VPW nmos_6p0 w=0.82u l=0.6u
X5 a_47_68# A1 VDD VNW pmos_6p0 w=0.855u l=0.5u
X6 Z a_47_68# VDD VNW pmos_6p0 w=1.22u l=0.5u
X7 VDD A2 a_47_68# VNW pmos_6p0 w=0.855u l=0.5u
X8 VSS A4 a_643_68# VPW nmos_6p0 w=0.82u l=0.6u
X9 a_47_68# A3 VDD VNW pmos_6p0 w=0.855u l=0.5u
X10 VDD a_47_68# Z VNW pmos_6p0 w=1.22u l=0.5u
X11 VDD A4 a_47_68# VNW pmos_6p0 w=0.855u l=0.5u
.ends



******* EOF

* NGSPICE file created from gf180mcu_fd_sc_mcu7t5v0__and4_2.ext - technology: gf180mcuC



******* EOF

* NGSPICE file created from gf180mcu_fd_sc_mcu7t5v0__and4_4.ext - technology: gf180mcuC

.subckt gf180mcu_fd_sc_mcu7t5v0__and4_4 A2 A3 A4 VDD VSS Z A1 VPW VNW
X0 Z a_227_494# VDD VNW pmos_6p0 w=1.22u l=0.5u
X1 VSS a_227_494# Z VPW nmos_6p0 w=0.645u l=0.6u
X2 VDD A1 a_227_494# VNW pmos_6p0 w=1.11u l=0.5u
X3 a_227_494# A1 VDD VNW pmos_6p0 w=1.11u l=0.5u
X4 VDD a_227_494# Z VNW pmos_6p0 w=1.22u l=0.5u
X5 a_635_68# A2 a_431_68# VPW nmos_6p0 w=0.645u l=0.6u
X6 VDD A2 a_227_494# VNW pmos_6p0 w=1.11u l=0.5u
X7 a_247_68# A4 VSS VPW nmos_6p0 w=0.645u l=0.6u
X8 a_227_494# A3 VDD VNW pmos_6p0 w=1.11u l=0.5u
X9 VDD A4 a_227_494# VNW pmos_6p0 w=1.11u l=0.5u
X10 a_1451_68# A3 a_1247_68# VPW nmos_6p0 w=0.645u l=0.6u
X11 Z a_227_494# VSS VPW nmos_6p0 w=0.645u l=0.6u
X12 a_1247_68# A2 a_1063_68# VPW nmos_6p0 w=0.645u l=0.6u
X13 a_227_494# A1 a_635_68# VPW nmos_6p0 w=0.645u l=0.6u
X14 a_227_494# A4 VDD VNW pmos_6p0 w=1.11u l=0.5u
X15 Z a_227_494# VSS VPW nmos_6p0 w=0.645u l=0.6u
X16 VDD A3 a_227_494# VNW pmos_6p0 w=1.11u l=0.5u
X17 a_1063_68# A1 a_227_494# VPW nmos_6p0 w=0.645u l=0.6u
X18 Z a_227_494# VDD VNW pmos_6p0 w=1.22u l=0.5u
X19 a_431_68# A3 a_247_68# VPW nmos_6p0 w=0.645u l=0.6u
X20 VSS a_227_494# Z VPW nmos_6p0 w=0.645u l=0.6u
X21 a_227_494# A2 VDD VNW pmos_6p0 w=1.11u l=0.5u
X22 VDD a_227_494# Z VNW pmos_6p0 w=1.22u l=0.5u
X23 VSS A4 a_1451_68# VPW nmos_6p0 w=0.645u l=0.6u
.ends



******* EOF

* NGSPICE file created from gf180mcu_fd_sc_mcu7t5v0__and4_4.ext - technology: gf180mcuC



******* EOF

* NGSPICE file created from gf180mcu_fd_sc_mcu7t5v0__antenna.ext - technology: gf180mcuC

.subckt gf180mcu_fd_sc_mcu7t5v0__antenna VSS I VDD 
D0 VSS I np_6p0 pj=1.86u area=0.2052p
D1 I VDD pn_6p0 pj=1.86u area=0.2052p
.ends



******* EOF

* NGSPICE file created from gf180mcu_fd_sc_mcu7t5v0__antenna.ext - technology: gf180mcuC



******* EOF

* NGSPICE file created from gf180mcu_fd_sc_mcu7t5v0__aoi21_1.ext - technology: gf180mcuC

.subckt gf180mcu_fd_sc_mcu7t5v0__aoi21_1 B VDD VSS ZN A1 A2 VPW VNW
X0 VDD B a_36_472# VNW pmos_6p0 w=1.215u l=0.5u
X1 ZN A2 a_36_472# VNW pmos_6p0 w=1.215u l=0.5u
X2 a_36_472# A1 ZN VNW pmos_6p0 w=1.215u l=0.5u
X3 VSS B ZN VPW nmos_6p0 w=0.51u l=0.6u
X4 ZN A1 a_244_68# VPW nmos_6p0 w=0.82u l=0.6u
X5 a_244_68# A2 VSS VPW nmos_6p0 w=0.82u l=0.6u
.ends



******* EOF

* NGSPICE file created from gf180mcu_fd_sc_mcu7t5v0__aoi21_1.ext - technology: gf180mcuC



******* EOF

* NGSPICE file created from gf180mcu_fd_sc_mcu7t5v0__aoi21_2.ext - technology: gf180mcuC

.subckt gf180mcu_fd_sc_mcu7t5v0__aoi21_2 B VDD VSS ZN A1 A2 VPW VNW
X0 ZN A2 a_49_472# VNW pmos_6p0 w=1.215u l=0.5u
X1 VSS B ZN VPW nmos_6p0 w=0.565u l=0.6u
X2 ZN A1 a_741_69# VPW nmos_6p0 w=0.775u l=0.6u
X3 a_1133_69# A1 ZN VPW nmos_6p0 w=0.775u l=0.6u
X4 VSS A2 a_1133_69# VPW nmos_6p0 w=0.775u l=0.6u
X5 VDD B a_49_472# VNW pmos_6p0 w=1.215u l=0.5u
X6 ZN A1 a_49_472# VNW pmos_6p0 w=1.215u l=0.5u
X7 a_741_69# A2 VSS VPW nmos_6p0 w=0.775u l=0.6u
X8 a_49_472# A1 ZN VNW pmos_6p0 w=1.215u l=0.5u
X9 ZN B VSS VPW nmos_6p0 w=0.565u l=0.6u
X10 a_49_472# A2 ZN VNW pmos_6p0 w=1.215u l=0.5u
X11 a_49_472# B VDD VNW pmos_6p0 w=1.215u l=0.5u
.ends



******* EOF

* NGSPICE file created from gf180mcu_fd_sc_mcu7t5v0__aoi21_2.ext - technology: gf180mcuC



******* EOF

* NGSPICE file created from gf180mcu_fd_sc_mcu7t5v0__aoi21_4.ext - technology: gf180mcuC

.subckt gf180mcu_fd_sc_mcu7t5v0__aoi21_4 A2 B VDD VSS ZN A1 VPW VNW
X0 a_288_68# A2 VSS VPW nmos_6p0 w=0.82u l=0.6u
X1 a_1072_68# A2 VSS VPW nmos_6p0 w=0.82u l=0.6u
X2 VSS B ZN VPW nmos_6p0 w=0.51u l=0.6u
X3 a_76_476# A1 ZN VNW pmos_6p0 w=1.2u l=0.5u
X4 ZN A1 a_288_68# VPW nmos_6p0 w=0.82u l=0.6u
X5 ZN A1 a_76_476# VNW pmos_6p0 w=1.2u l=0.5u
X6 a_76_476# A2 ZN VNW pmos_6p0 w=1.2u l=0.5u
X7 a_76_476# B VDD VNW pmos_6p0 w=1.2u l=0.5u
X8 ZN B VSS VPW nmos_6p0 w=0.51u l=0.6u
X9 a_680_68# A1 ZN VPW nmos_6p0 w=0.82u l=0.6u
X10 VDD B a_76_476# VNW pmos_6p0 w=1.2u l=0.5u
X11 VDD B a_76_476# VNW pmos_6p0 w=1.2u l=0.5u
X12 a_76_476# B VDD VNW pmos_6p0 w=1.2u l=0.5u
X13 ZN B VSS VPW nmos_6p0 w=0.51u l=0.6u
X14 ZN A2 a_76_476# VNW pmos_6p0 w=1.2u l=0.5u
X15 a_76_476# A1 ZN VNW pmos_6p0 w=1.2u l=0.5u
X16 a_1464_68# A1 ZN VPW nmos_6p0 w=0.82u l=0.6u
X17 ZN A1 a_76_476# VNW pmos_6p0 w=1.2u l=0.5u
X18 VSS A2 a_1464_68# VPW nmos_6p0 w=0.82u l=0.6u
X19 a_76_476# A2 ZN VNW pmos_6p0 w=1.2u l=0.5u
X20 VSS A2 a_680_68# VPW nmos_6p0 w=0.82u l=0.6u
X21 ZN A2 a_76_476# VNW pmos_6p0 w=1.2u l=0.5u
X22 VSS B ZN VPW nmos_6p0 w=0.51u l=0.6u
X23 ZN A1 a_1072_68# VPW nmos_6p0 w=0.82u l=0.6u
.ends



******* EOF

* NGSPICE file created from gf180mcu_fd_sc_mcu7t5v0__aoi21_4.ext - technology: gf180mcuC



******* EOF

* NGSPICE file created from gf180mcu_fd_sc_mcu7t5v0__aoi22_1.ext - technology: gf180mcuC

.subckt gf180mcu_fd_sc_mcu7t5v0__aoi22_1 B1 B2 VDD VSS ZN A1 A2 VPW VNW
X0 a_665_69# A1 ZN VPW nmos_6p0 w=0.815u l=0.6u
X1 VSS A2 a_665_69# VPW nmos_6p0 w=0.815u l=0.6u
X2 ZN B1 a_257_69# VPW nmos_6p0 w=0.815u l=0.6u
X3 VDD B2 a_49_472# VNW pmos_6p0 w=1.215u l=0.5u
X4 a_49_472# B1 VDD VNW pmos_6p0 w=1.215u l=0.5u
X5 ZN A1 a_49_472# VNW pmos_6p0 w=1.215u l=0.5u
X6 a_49_472# A2 ZN VNW pmos_6p0 w=1.215u l=0.5u
X7 a_257_69# B2 VSS VPW nmos_6p0 w=0.815u l=0.6u
.ends



******* EOF

* NGSPICE file created from gf180mcu_fd_sc_mcu7t5v0__aoi22_1.ext - technology: gf180mcuC



******* EOF

* NGSPICE file created from gf180mcu_fd_sc_mcu7t5v0__aoi22_2.ext - technology: gf180mcuC

.subckt gf180mcu_fd_sc_mcu7t5v0__aoi22_2 B1 B2 VDD VSS ZN A1 A2 VPW VNW
X0 VSS B2 a_659_69# VPW nmos_6p0 w=0.815u l=0.6u
X1 VDD B2 a_36_472# VNW pmos_6p0 w=1.215u l=0.5u
X2 ZN A1 a_1060_69# VPW nmos_6p0 w=0.815u l=0.6u
X3 a_36_472# B1 VDD VNW pmos_6p0 w=1.215u l=0.5u
X4 a_1060_69# A2 VSS VPW nmos_6p0 w=0.815u l=0.6u
X5 VDD B1 a_36_472# VNW pmos_6p0 w=1.215u l=0.5u
X6 VSS A2 a_1468_69# VPW nmos_6p0 w=0.815u l=0.6u
X7 a_36_472# B2 VDD VNW pmos_6p0 w=1.215u l=0.5u
X8 ZN A2 a_36_472# VNW pmos_6p0 w=1.215u l=0.5u
X9 a_36_472# A1 ZN VNW pmos_6p0 w=1.215u l=0.5u
X10 ZN B1 a_244_69# VPW nmos_6p0 w=0.815u l=0.6u
X11 a_659_69# B1 ZN VPW nmos_6p0 w=0.815u l=0.6u
X12 a_244_69# B2 VSS VPW nmos_6p0 w=0.815u l=0.6u
X13 ZN A1 a_36_472# VNW pmos_6p0 w=1.215u l=0.5u
X14 a_1468_69# A1 ZN VPW nmos_6p0 w=0.815u l=0.6u
X15 a_36_472# A2 ZN VNW pmos_6p0 w=1.215u l=0.5u
.ends



******* EOF

* NGSPICE file created from gf180mcu_fd_sc_mcu7t5v0__aoi22_2.ext - technology: gf180mcuC



******* EOF

* NGSPICE file created from gf180mcu_fd_sc_mcu7t5v0__aoi22_4.ext - technology: gf180mcuC

.subckt gf180mcu_fd_sc_mcu7t5v0__aoi22_4 A2 B1 B2 VDD VSS ZN A1 VPW VNW
X0 VSS B2 a_1468_68# VPW nmos_6p0 w=0.82u l=0.6u
X1 ZN A2 a_36_497# VNW pmos_6p0 w=1.095u l=0.5u
X2 a_36_497# A1 ZN VNW pmos_6p0 w=1.095u l=0.5u
X3 VDD B2 a_36_497# VNW pmos_6p0 w=1.095u l=0.5u
X4 a_36_497# B1 VDD VNW pmos_6p0 w=1.095u l=0.5u
X5 a_2356_68# A1 ZN VPW nmos_6p0 w=0.82u l=0.6u
X6 VDD B1 a_36_497# VNW pmos_6p0 w=1.095u l=0.5u
X7 ZN B1 a_244_68# VPW nmos_6p0 w=0.82u l=0.6u
X8 a_244_68# B2 VSS VPW nmos_6p0 w=0.82u l=0.6u
X9 a_1468_68# B1 ZN VPW nmos_6p0 w=0.82u l=0.6u
X10 a_36_497# B2 VDD VNW pmos_6p0 w=1.095u l=0.5u
X11 ZN A1 a_2764_68# VPW nmos_6p0 w=0.82u l=0.6u
X12 a_2764_68# A2 VSS VPW nmos_6p0 w=0.82u l=0.6u
X13 VDD B2 a_36_497# VNW pmos_6p0 w=1.095u l=0.5u
X14 ZN A1 a_36_497# VNW pmos_6p0 w=1.095u l=0.5u
X15 ZN A1 a_1948_68# VPW nmos_6p0 w=0.82u l=0.6u
X16 a_652_68# B1 ZN VPW nmos_6p0 w=0.82u l=0.6u
X17 VSS B2 a_652_68# VPW nmos_6p0 w=0.82u l=0.6u
X18 VSS A2 a_3260_68# VPW nmos_6p0 w=0.82u l=0.6u
X19 a_36_497# A2 ZN VNW pmos_6p0 w=1.095u l=0.5u
X20 a_3260_68# A1 ZN VPW nmos_6p0 w=0.82u l=0.6u
X21 a_36_497# A1 ZN VNW pmos_6p0 w=1.095u l=0.5u
X22 a_36_497# B1 VDD VNW pmos_6p0 w=1.095u l=0.5u
X23 ZN B1 a_1060_68# VPW nmos_6p0 w=0.82u l=0.6u
X24 ZN A1 a_36_497# VNW pmos_6p0 w=1.095u l=0.5u
X25 a_1948_68# A2 VSS VPW nmos_6p0 w=0.82u l=0.6u
X26 VSS A2 a_2356_68# VPW nmos_6p0 w=0.82u l=0.6u
X27 a_1060_68# B2 VSS VPW nmos_6p0 w=0.82u l=0.6u
X28 VDD B1 a_36_497# VNW pmos_6p0 w=1.095u l=0.5u
X29 ZN A2 a_36_497# VNW pmos_6p0 w=1.095u l=0.5u
X30 a_36_497# A2 ZN VNW pmos_6p0 w=1.095u l=0.5u
X31 a_36_497# B2 VDD VNW pmos_6p0 w=1.095u l=0.5u
.ends



******* EOF

* NGSPICE file created from gf180mcu_fd_sc_mcu7t5v0__aoi22_4.ext - technology: gf180mcuC



******* EOF

* NGSPICE file created from gf180mcu_fd_sc_mcu7t5v0__aoi211_1.ext - technology: gf180mcuC

.subckt gf180mcu_fd_sc_mcu7t5v0__aoi211_1 B C VDD VSS ZN A1 A2 VPW VNW
X0 ZN C VSS VPW nmos_6p0 w=0.465u l=0.6u
X1 ZN A2 a_37_472# VNW pmos_6p0 w=1.215u l=0.5u
X2 VSS B ZN VPW nmos_6p0 w=0.465u l=0.6u
X3 a_37_472# A1 ZN VNW pmos_6p0 w=1.215u l=0.5u
X4 VDD C a_653_472# VNW pmos_6p0 w=1.215u l=0.5u
X5 a_245_90# A2 VSS VPW nmos_6p0 w=0.71u l=0.6u
X6 ZN A1 a_245_90# VPW nmos_6p0 w=0.71u l=0.6u
X7 a_653_472# B a_37_472# VNW pmos_6p0 w=1.215u l=0.5u
.ends



******* EOF

* NGSPICE file created from gf180mcu_fd_sc_mcu7t5v0__aoi211_1.ext - technology: gf180mcuC



******* EOF

* NGSPICE file created from gf180mcu_fd_sc_mcu7t5v0__aoi211_2.ext - technology: gf180mcuC

.subckt gf180mcu_fd_sc_mcu7t5v0__aoi211_2 B C VDD VSS ZN A1 A2 VPW VNW
X0 a_36_488# B a_1492_488# VNW pmos_6p0 w=1.14u l=0.5u
X1 a_636_68# A1 ZN VPW nmos_6p0 w=0.78u l=0.6u
X2 a_1492_488# C VDD VNW pmos_6p0 w=1.14u l=0.5u
X3 VSS A2 a_636_68# VPW nmos_6p0 w=0.78u l=0.6u
X4 VSS B ZN VPW nmos_6p0 w=0.515u l=0.6u
X5 VSS C ZN VPW nmos_6p0 w=0.515u l=0.6u
X6 a_244_68# A2 VSS VPW nmos_6p0 w=0.78u l=0.6u
X7 ZN A1 a_244_68# VPW nmos_6p0 w=0.78u l=0.6u
X8 ZN C VSS VPW nmos_6p0 w=0.515u l=0.6u
X9 VDD C a_1044_488# VNW pmos_6p0 w=1.14u l=0.5u
X10 ZN A1 a_36_488# VNW pmos_6p0 w=1.14u l=0.5u
X11 ZN B VSS VPW nmos_6p0 w=0.515u l=0.6u
X12 a_36_488# A2 ZN VNW pmos_6p0 w=1.14u l=0.5u
X13 ZN A2 a_36_488# VNW pmos_6p0 w=1.14u l=0.5u
X14 a_1044_488# B a_36_488# VNW pmos_6p0 w=1.14u l=0.5u
X15 a_36_488# A1 ZN VNW pmos_6p0 w=1.14u l=0.5u
.ends



******* EOF

* NGSPICE file created from gf180mcu_fd_sc_mcu7t5v0__aoi211_2.ext - technology: gf180mcuC



******* EOF

* NGSPICE file created from gf180mcu_fd_sc_mcu7t5v0__aoi211_4.ext - technology: gf180mcuC

.subckt gf180mcu_fd_sc_mcu7t5v0__aoi211_4 A2 B C VDD VSS ZN A1 VPW VNW
X0 a_170_472# A2 ZN VNW pmos_6p0 w=1.22u l=0.5u
X1 VSS B ZN VPW nmos_6p0 w=0.46u l=0.6u
X2 a_786_69# A1 ZN VPW nmos_6p0 w=0.77u l=0.6u
X3 a_3662_472# C VDD VNW pmos_6p0 w=1.22u l=0.5u
X4 ZN A2 a_170_472# VNW pmos_6p0 w=1.22u l=0.5u
X5 a_170_472# B a_3662_472# VNW pmos_6p0 w=1.22u l=0.5u
X6 a_1194_69# A2 VSS VPW nmos_6p0 w=0.77u l=0.6u
X7 ZN A1 a_1194_69# VPW nmos_6p0 w=0.77u l=0.6u
X8 VSS C ZN VPW nmos_6p0 w=0.46u l=0.6u
X9 a_170_472# A1 ZN VNW pmos_6p0 w=1.22u l=0.5u
X10 ZN B VSS VPW nmos_6p0 w=0.46u l=0.6u
X11 a_3126_472# B a_170_472# VNW pmos_6p0 w=1.22u l=0.5u
X12 ZN A1 a_170_472# VNW pmos_6p0 w=1.22u l=0.5u
X13 ZN A1 a_358_69# VPW nmos_6p0 w=0.77u l=0.6u
X14 ZN C VSS VPW nmos_6p0 w=0.46u l=0.6u
X15 VDD C a_3126_472# VNW pmos_6p0 w=1.22u l=0.5u
X16 VSS A2 a_1602_69# VPW nmos_6p0 w=0.77u l=0.6u
X17 VSS B ZN VPW nmos_6p0 w=0.46u l=0.6u
X18 a_1602_69# A1 ZN VPW nmos_6p0 w=0.77u l=0.6u
X19 a_170_472# A2 ZN VNW pmos_6p0 w=1.22u l=0.5u
X20 a_2034_472# B a_170_472# VNW pmos_6p0 w=1.22u l=0.5u
X21 a_2590_472# C VDD VNW pmos_6p0 w=1.22u l=0.5u
X22 a_358_69# A2 VSS VPW nmos_6p0 w=0.77u l=0.6u
X23 VSS A2 a_786_69# VPW nmos_6p0 w=0.77u l=0.6u
X24 a_170_472# B a_2590_472# VNW pmos_6p0 w=1.22u l=0.5u
X25 VSS C ZN VPW nmos_6p0 w=0.46u l=0.6u
X26 ZN B VSS VPW nmos_6p0 w=0.46u l=0.6u
X27 ZN A2 a_170_472# VNW pmos_6p0 w=1.22u l=0.5u
X28 a_170_472# A1 ZN VNW pmos_6p0 w=1.22u l=0.5u
X29 ZN C VSS VPW nmos_6p0 w=0.46u l=0.6u
X30 VDD C a_2034_472# VNW pmos_6p0 w=1.22u l=0.5u
X31 ZN A1 a_170_472# VNW pmos_6p0 w=1.22u l=0.5u
.ends



******* EOF

* NGSPICE file created from gf180mcu_fd_sc_mcu7t5v0__aoi211_4.ext - technology: gf180mcuC



******* EOF

* NGSPICE file created from gf180mcu_fd_sc_mcu7t5v0__aoi221_1.ext - technology: gf180mcuC

.subckt gf180mcu_fd_sc_mcu7t5v0__aoi221_1 B2 C VDD VSS ZN A1 A2 B1 VPW VNW
X0 a_940_90# A2 VSS VPW nmos_6p0 w=0.71u l=0.6u
X1 VSS C ZN VPW nmos_6p0 w=0.465u l=0.6u
X2 a_672_472# C a_56_472# VNW pmos_6p0 w=1.215u l=0.5u
X3 VDD B2 a_56_472# VNW pmos_6p0 w=1.215u l=0.5u
X4 ZN A1 a_940_90# VPW nmos_6p0 w=0.71u l=0.6u
X5 a_56_472# B1 VDD VNW pmos_6p0 w=1.215u l=0.5u
X6 a_672_472# A1 ZN VNW pmos_6p0 w=1.215u l=0.5u
X7 ZN A2 a_672_472# VNW pmos_6p0 w=1.215u l=0.5u
X8 a_244_90# B2 VSS VPW nmos_6p0 w=0.71u l=0.6u
X9 ZN B1 a_244_90# VPW nmos_6p0 w=0.71u l=0.6u
.ends



******* EOF

* NGSPICE file created from gf180mcu_fd_sc_mcu7t5v0__aoi221_1.ext - technology: gf180mcuC



******* EOF

* NGSPICE file created from gf180mcu_fd_sc_mcu7t5v0__aoi221_2.ext - technology: gf180mcuC

.subckt gf180mcu_fd_sc_mcu7t5v0__aoi221_2 B1 B2 VDD VSS ZN A1 A2 C VPW VNW